                                  MODFLOW-NWT-SWR1 
      U.S. GEOLOGICAL SURVEY MODULAR FINITE-DIFFERENCE GROUNDWATER-FLOW MODEL
                            VERSION 1.1.3, 8/01/2017
                    BASED ON MODFLOW-2005 VERSION 1.11.00 08/08/2013

 LIST FILE: freyberg.list
                         UNIT    2

 OPENING freyberg.dis
 FILE TYPE:DIS   UNIT   11   STATUS:OLD    
 FORMAT:FORMATTED              ACCESS:SEQUENTIAL          

 OPENING freyberg.upw
 FILE TYPE:LPF   UNIT   31   STATUS:OLD    
 FORMAT:FORMATTED              ACCESS:SEQUENTIAL          

 OPENING freyberg.bas
 FILE TYPE:BAS6   UNIT   13   STATUS:OLD    
 FORMAT:FORMATTED              ACCESS:SEQUENTIAL          

 OPENING freyberg.rch
 FILE TYPE:RCH   UNIT   19   STATUS:OLD    
 FORMAT:FORMATTED              ACCESS:SEQUENTIAL          

 OPENING freyberg.wel
 FILE TYPE:WEL   UNIT   20   STATUS:OLD    
 FORMAT:FORMATTED              ACCESS:SEQUENTIAL          

 OPENING freyberg.riv
 FILE TYPE:RIV   UNIT   18   STATUS:OLD    
 FORMAT:FORMATTED              ACCESS:SEQUENTIAL          

 OPENING freyberg.oc
 FILE TYPE:OC   UNIT   14   STATUS:OLD    
 FORMAT:FORMATTED              ACCESS:SEQUENTIAL          

 OPENING freyberg.hds
 FILE TYPE:DATA   UNIT   51   STATUS:REPLACE
 FORMAT:FORMATTED              ACCESS:SEQUENTIAL          

 OPENING freyberg.ddn
 FILE TYPE:DATA(BINARY)   UNIT   52   STATUS:REPLACE
 FORMAT:BINARY                 ACCESS:SEQUENTIAL          

 OPENING freyberg.cbc
 FILE TYPE:DATA(BINARY)   UNIT   53   STATUS:REPLACE
 FORMAT:BINARY                 ACCESS:SEQUENTIAL          

 OPENING freyberg.pcg
 FILE TYPE:PCG   UNIT   32   STATUS:OLD    
 FORMAT:FORMATTED              ACCESS:SEQUENTIAL          

 BAS -- BASIC PACKAGE, VERSION 1.1.3, 8/01/2017 INPUT READ FROM UNIT   13
 
 MODFLOW was compiled using mixed precision
 Precision of REAL variables:           6
 Precision of DOUBLE PRECISION variables:          15

 DISCRETIZATION INPUT DATA READ FROM UNIT   11
 # Discretization file for MODFLOW, generated by Flopy.
    1 LAYERS        40 ROWS        20 COLUMNS
    3 STRESS PERIOD(S) IN SIMULATION
 MODEL TIME UNIT IS DAYS
 MODEL LENGTH UNIT IS METERS
  Confining bed flag for each layer:
   0



                               DELR
 READING ON UNIT   11 WITH FORMAT: (20G15.6)           



                               DELC
 READING ON UNIT   11 WITH FORMAT: (40G15.6)           

 TOP ELEVATION OF LAYER 1 =   35.0000    

 OPENING FILE ON UNIT   99:
 botm.ref                                                                                                                                                                                                



             MODEL LAYER BOTTOM EL. FOR LAYER   1
 READING ON UNIT   99 WITH FORMAT: (10E12.4)           


 STRESS PERIOD     LENGTH       TIME STEPS     MULTIPLIER FOR DELT    SS FLAG
 ----------------------------------------------------------------------------
        1         1.000000          1                    1.000         SS
        2         1825.000          1                    1.000         TR
        3         1.000000          1                    1.000         SS

 COMBINED STEADY-STATE AND TRANSIENT SIMULATION



 
 # Basic package file for MODFLOW, generated by Flopy.                           
 THE FREE FORMAT OPTION HAS BEEN SELECTED

 OPENING FILE ON UNIT   99:
 ibound.ref                                                                                                                                                                                              



                     BOUNDARY ARRAY FOR LAYER   1
 READING ON UNIT   99 WITH FORMAT: (25I3)              

 AQUIFER HEAD WILL BE SET TO  -999.99     AT ALL NO-FLOW NODES (IBOUND=0).

 OPENING FILE ON UNIT   99:
 strt.ref                                                                                                                                                                                                



                       INITIAL HEAD FOR LAYER   1
 READING ON UNIT   99 WITH FORMAT: (10E12.4)           
 # Output control package file for MODFLOW, generated by Flopy.

 OUTPUT CONTROL IS SPECIFIED ONLY AT TIME STEPS FOR WHICH OUTPUT IS DESIRED
 HEADS WILL BE SAVED WITH FORMAT: (20E15.6)           
 COMPACT CELL-BY-CELL BUDGET FILES WILL BE WRITTEN
 AUXILIARY DATA WILL BE SAVED IN CELL-BY-CELL BUDGET FILES
 HEAD PRINT FORMAT CODE IS   0    DRAWDOWN PRINT FORMAT CODE IS   0
 HEADS WILL BE SAVED ON UNIT   51    DRAWDOWNS WILL BE SAVED ON UNIT   52

 LPF -- LAYER-PROPERTY FLOW PACKAGE, VERSION 7, 5/2/2005
         INPUT READ FROM UNIT   31
 # UPW for MODFLOW-NWT, generated by Flopy.
 CELL-BY-CELL FLOWS WILL BE SAVED ON UNIT   53
 HEAD AT CELLS THAT CONVERT TO DRY= -1.00000E+30
 No named parameters

   LAYER FLAGS:
 LAYER       LAYTYP        LAYAVG         CHANI        LAYVKA        LAYWET
 ---------------------------------------------------------------------------
    1             1             0     1.000E+00             0             0

   INTERPRETATION OF LAYER FLAGS:
                        INTERBLOCK     HORIZONTAL    DATA IN
         LAYER TYPE   TRANSMISSIVITY   ANISOTROPY   ARRAY VKA   WETTABILITY
 LAYER      (LAYTYP)      (LAYAVG)       (CHANI)      (LAYVKA)      (LAYWET)
 ---------------------------------------------------------------------------
    1   CONVERTIBLE      HARMONIC     1.000E+00    VERTICAL K  NON-WETTABLE

 WETTING CAPABILITY IS NOT ACTIVE IN ANY LAYER

 OPENING FILE ON UNIT   99:
 hk_Layer_1.ref                                                                                                                                                                                          



              HYD. COND. ALONG ROWS FOR LAYER   1
 READING ON UNIT   99 WITH FORMAT: (20G15.6)           

      VERTICAL HYD. COND. =   1.00000     FOR LAYER   1

 OPENING FILE ON UNIT   99:
 ss_Layer_1.ref                                                                                                                                                                                          



                   SPECIFIC STORAGE FOR LAYER   1
 READING ON UNIT   99 WITH FORMAT: (20G15.6)           

           SPECIFIC YIELD =  0.173400     FOR LAYER   1

 WEL -- WELL PACKAGE FOR NWT VERSION 1.1.3,  8/01/2017 INPUT READ FROM UNIT   20
 # Well file for MODFLOW, generated by Flopy.
 No named parameters
 MAXIMUM OF      6 ACTIVE WELLS AT ONE TIME
 No named parameters


     0 Well parameters

 RIV -- RIVER PACKAGE, VERSION 7, 5/2/2005 INPUT READ FROM UNIT   18
 # RIV for MODFLOW, generated by Flopy.
 No named parameters
 MAXIMUM OF     40 ACTIVE RIVER REACHES AT ONE TIME


     0 River parameters

 RCH -- RECHARGE PACKAGE, VERSION 7, 5/2/2005 INPUT READ FROM UNIT   19
 # RCH for MODFLOW, generated by Flopy.
 No named parameters
 OPTION 3 -- RECHARGE TO HIGHEST ACTIVE NODE IN EACH VERTICAL COLUMN


     0 Recharge parameters

 PCG -- CONJUGATE-GRADIENT SOLUTION PACKAGE, VERSION 7, 5/2/2005
 MAXIMUM OF    100 CALLS OF SOLUTION ROUTINE
 MAXIMUM OF     25 INTERNAL ITERATIONS PER CALL TO SOLUTION ROUTINE
 MATRIX PRECONDITIONING TYPE :    1
 IHCOFADD option -- When an active cell is surrounded by dry cells, convert
 the cell to dry only if storage and head-dependent boundary flow are 0.



                                    SOLUTION BY THE CONJUGATE-GRADIENT METHOD
                                   -------------------------------------------
                    MAXIMUM NUMBER OF CALLS TO PCG ROUTINE =      100
                        MAXIMUM ITERATIONS PER CALL TO PCG =       25
                               MATRIX PRECONDITIONING TYPE =        1
        RELAXATION FACTOR (ONLY USED WITH PRECOND. TYPE 1) =    0.10000E+01
 PARAMETER OF POLYNOMIAL PRECOND. = 2 (2) OR IS CALCULATED :        2
                         HEAD CHANGE CRITERION FOR CLOSURE =    0.10000E-04
                     RESIDUAL CHANGE CRITERION FOR CLOSURE =    0.10000E+00
            PCG HEAD AND RESIDUAL CHANGE PRINTOUT INTERVAL =        5
     PRINTING FROM SOLVER IS LIMITED(1) OR SUPPRESSED (>1) =        0
                            STEADY-STATE DAMPING PARAMETER =    0.70000E+00
                               TRANSIENT DAMPING PARAMETER =    0.70000E+00
1
                            STRESS PERIOD NO.    1, LENGTH =   1.000000    
                            -----------------------------------------------

                              NUMBER OF TIME STEPS =     1

                               MULTIPLIER FOR DELT =     1.000

                            INITIAL TIME STEP SIZE =   1.000000    

 WELL NO.  LAYER   ROW   COL   STRESS RATE         
 --------------------------------------------------
      1      1      9     16       96.55    
      2      1     11     13       96.79    
      3      1     20     14       98.25    
      4      1     26     10       95.84    
      5      1     29      6       104.7    
      6      1     34     12       99.08    

      6 WELLS

 REACH NO.  LAYER   ROW   COL     STAGE      CONDUCTANCE     BOTTOM EL.         
 -------------------------------------------------------------------------------
      1      1      1     15       20.10           4257.           20.00    
      2      1      2     15       19.87           2641.           19.75    
      3      1      3     15       19.65           4007.           19.50    
      4      1      4     15       19.42           5966.           19.25    
      5      1      5     15       19.19           1943.           19.00    
      6      1      6     15       18.97           1942.           18.75    
      7      1      7     15       18.74           4770.           18.50    
      8      1      8     15       18.51           1317.           18.25    
      9      1      9     15       18.28           1582.           18.00    
     10      1     10     15       19.06           4115.           17.75    
     11      1     11     15       17.83          0.1759E+05       17.50    
     12      1     12     15       17.60           3557.           17.25    
     13      1     13     15       17.38           2086.           17.00    
     14      1     14     15       17.15           3987.           16.75    
     15      1     15     15       16.92           9900.           16.50    
     16      1     16     15       16.70           5139.           16.25    
     17      1     17     15       16.47           5203.           16.00    
     18      1     18     15       16.24          0.1117E+05       15.75    
     19      1     19     15       16.02           8939.           15.50    
     20      1     20     15       15.79           1965.           15.25    
     21      1     21     15       15.56           1109.           15.00    
     22      1     22     15       15.33           3717.           14.75    
     23      1     23     15       15.11           2116.           14.50    
     24      1     24     15       14.88           4463.           14.25    
     25      1     25     15       14.65           6402.           14.00    
     26      1     26     15       14.43           4148.           13.75    
     27      1     27     15       14.20           2355.           13.50    
     28      1     28     15       13.97           2091.           13.25    
     29      1     29     15       13.75           4045.           13.00    
     30      1     30     15       13.52          0.2351E+05       12.75    
     31      1     31     15       13.29           1467.           12.50    
     32      1     32     15       13.07           7134.           12.25    
     33      1     33     15       12.84           9449.           12.00    
     34      1     34     15       12.61          0.1481E+05       11.75    
     35      1     35     15       12.38           9142.           11.50    
     36      1     36     15       12.16           7663.           11.25    
     37      1     37     15       11.93           2390.           11.00    
     38      1     38     15       11.70           4343.           10.75    
     39      1     39     15       11.48           2558.           10.50    
     40      1     40     15       11.25           6127.           10.25    

     40 RIVER REACHES

 OPENING FILE ON UNIT   99:
 rech_0.ref                                                                                                                                                                                              



                           RECHARGE
 READING ON UNIT   99 WITH FORMAT: (20G15.6)           
 
 SOLVING FOR HEAD 


    15 CALLS TO PCG ROUTINE FOR TIME STEP     1 IN STRESS PERIOD    1
   182 TOTAL ITERATIONS

 MAXIMUM HEAD CHANGE FOR EACH ITERATION (1 INDICATES THE FIRST INNER ITERATION):

    HEAD CHANGE    HEAD CHANGE    HEAD CHANGE    HEAD CHANGE    HEAD CHANGE 
   LAYER,ROW,COL  LAYER,ROW,COL  LAYER,ROW,COL  LAYER,ROW,COL  LAYER,ROW,COL
 ---------------------------------------------------------------------------
  1  -45.76      0  -25.64      0   19.83      0   5.626      0  -2.536    
   (  1, 39,  9)  (  1,  9,  4)  (  1,  9,  4)  (  1, 39,  8)  (  1, 33,  2)
  0  -1.125      0 -0.4807      0 -0.2366      0 -0.1594      0  0.7668E-01
   (  1, 28,  4)  (  1, 37,  5)  (  1, 37,  5)  (  1, 32,  1)  (  1,  3,  2)
  0 -0.3330E-01  0  0.2248E-01  0 -0.8549E-02  0  0.8571E-02  0 -0.4298E-02
   (  1,  8,  5)  (  1,  6,  3)  (  1,  5,  1)  (  1,  9,  4)  (  1,  9,  1)
  0  0.9664E-03  0 -0.5848E-03  0  0.2300E-03  0 -0.7260E-04  0 -0.3012E-04
   (  1, 11, 13)  (  1,  6,  2)  (  1, 33,  2)  (  1,  9, 10)  (  1, 13, 10)
  0 -0.1721E-04  0  0.9387E-05  1  -12.38      0  -11.72      0  -4.932    
   (  1, 16,  3)  (  1, 17,  4)  (  1, 39, 12)  (  1,  9,  4)  (  1,  8,  5)
  0   1.987      0 -0.8554      0 -0.3893      0 -0.1487      0 -0.7129E-01
   (  1, 39,  8)  (  1, 33,  2)  (  1, 28,  4)  (  1, 37,  5)  (  1, 37,  5)
  0 -0.5811E-01  0  0.2531E-01  0 -0.9450E-02  0  0.5044E-02  0 -0.3700E-02
   (  1, 32,  1)  (  1,  3,  2)  (  1,  8,  5)  (  1,  6,  2)  (  1,  9,  4)
  0  0.2782E-02  0  0.8079E-03  0  0.4191E-03  0 -0.1855E-03  0  0.7333E-04
   (  1,  9,  4)  (  1,  8,  5)  (  1, 33,  2)  (  1,  1,  2)  (  1, 33,  2)
  0 -0.2403E-04  0 -0.1070E-04  0  0.4098E-05  1   9.050      0  -6.910    
   (  1, 25, 13)  (  1,  5,  2)  (  1, 31,  4)  (  1,  9,  4)  (  1,  9,  4)
  0  -3.049      0 -0.7353      0 -0.3123      0 -0.1219      0 -0.4658E-01
   (  1,  8,  5)  (  1,  3,  6)  (  1, 33,  2)  (  1, 29,  4)  (  1, 23,  5)
  0 -0.3318E-01  0 -0.2210E-01  0  0.6406E-02  0 -0.3958E-02  0  0.1973E-02
   (  1, 27,  4)  (  1, 32,  1)  (  1,  3,  3)  (  1,  8,  5)  (  1,  8,  5)
  0  0.1878E-02  0 -0.1038E-02  0  0.3289E-03  0 -0.1357E-03  0 -0.7856E-04
   (  1,  9,  4)  (  1,  9,  4)  (  1, 19,  3)  (  1, 12,  9)  (  1,  3,  2)
  0  0.2670E-04  0 -0.1136E-04  0 -0.3813E-05  1   1.787      0  -1.180    
   (  1,  9,  4)  (  1,  7,  2)  (  1,  9, 13)  (  1,  8,  5)  (  1,  8,  5)
  0 -0.5983      0  0.2689      0 -0.1338      0 -0.6335E-01  0 -0.2990E-01
   (  1,  9,  4)  (  1,  9,  4)  (  1, 26,  3)  (  1, 17,  3)  (  1, 29,  4)
  0 -0.1468E-01  0 -0.7150E-02  0 -0.2560E-02  0 -0.1323E-02  0  0.7608E-03
   (  1,  8,  5)  (  1, 32,  1)  (  1, 24,  8)  (  1, 35,  4)  (  1,  6,  2)
  0 -0.3753E-03  0  0.1468E-03  0 -0.1095E-03  0  0.9511E-04  0  0.3020E-04
   (  1,  5,  1)  (  1,  9,  2)  (  1,  9,  1)  (  1,  9,  4)  (  1,  8,  5)
  0  0.9268E-05  1  0.4969      0  0.5610      0 -0.2836      0 -0.1478    
   (  1,  5,  6)  (  1,  8,  6)  (  1,  9,  4)  (  1,  9,  4)  (  1, 32,  1)
  0 -0.5466E-01  0 -0.2570E-01  0 -0.1200E-01  0 -0.5219E-02  0 -0.2867E-02
   (  1, 26,  2)  (  1, 19,  3)  (  1, 30,  4)  (  1, 32,  1)  (  1, 32,  1)
  0 -0.9215E-03  0  0.6845E-03  0 -0.3404E-03  0  0.2033E-03  0  0.2068E-03
   (  1,  8,  5)  (  1, 10,  1)  (  1,  8,  5)  (  1,  8,  5)  (  1,  9,  3)
  0 -0.5933E-04  0  0.2230E-04  0 -0.7849E-05  1 -0.1641      0  0.2400    
   (  1,  6,  1)  (  1, 35,  4)  (  1,  4,  3)  (  1,  9,  4)  (  1,  9,  4)
  0 -0.5794E-01  0 -0.4801E-01  0 -0.1836E-01  0 -0.7721E-02  0 -0.3812E-02
   (  1,  9,  4)  (  1,  8,  5)  (  1, 26,  1)  (  1, 20,  3)  (  1, 30,  5)
  0 -0.1774E-02  0 -0.1118E-02  0 -0.3385E-03  0  0.2520E-03  0 -0.8753E-04
   (  1, 37,  5)  (  1, 32,  1)  (  1,  8,  5)  (  1, 13,  1)  (  1,  3,  1)
  0  0.6046E-04  0  0.3065E-04  0 -0.3162E-04  0  0.9334E-05  1 -0.5033E-01
   (  1,  8,  5)  (  1,  9,  3)  (  1,  9,  4)  (  1,  9,  4)  (  1,  9,  4)
  0  0.7052E-01  0 -0.1972E-01  0 -0.1784E-01  0 -0.5687E-02  0 -0.2321E-02
   (  1,  9,  4)  (  1,  9,  4)  (  1,  8,  5)  (  1, 25,  1)  (  1, 19,  3)
  0 -0.1131E-02  0 -0.5876E-03  0 -0.3625E-03  0  0.9024E-04  0  0.7150E-04
   (  1, 30,  5)  (  1, 37,  5)  (  1, 32,  1)  (  1, 29,  1)  (  1, 14,  1)
  0 -0.2564E-04  0  0.2230E-04  0  0.1463E-04  0 -0.8170E-05  1  0.1373E-01
   (  1,  3,  1)  (  1,  8,  5)  (  1,  9,  3)  (  1,  9,  4)  (  1, 24, 10)
  0  0.1552E-01  0 -0.1043E-01  0 -0.5953E-02  0 -0.1582E-02  0 -0.7200E-03
   (  1,  9,  4)  (  1,  9,  4)  (  1,  8,  5)  (  1, 26,  2)  (  1, 19,  3)
  0 -0.3205E-03  0 -0.1683E-03  0 -0.1046E-03  0  0.2765E-04  0  0.1941E-04
   (  1, 30,  5)  (  1, 37,  5)  (  1, 32,  1)  (  1,  3,  5)  (  1, 15,  1)
  0 -0.7505E-05  1  0.4436E-02  0 -0.4486E-02  0  0.3391E-02  0 -0.1513E-02
   (  1,  5,  1)  (  1, 24, 11)  (  1,  9,  4)  (  1,  9,  4)  (  1, 32,  1)
  0  0.4337E-03  0 -0.1988E-03  0 -0.7772E-04  0 -0.3830E-04  0 -0.2861E-04
   (  1,  8,  5)  (  1, 37,  5)  (  1, 30,  5)  (  1, 37,  5)  (  1, 34,  7)
  0  0.9753E-05  1  0.1573E-02  0 -0.2079E-02  0 -0.7515E-03  0 -0.5000E-03
   (  1,  3,  5)  (  1,  9,  4)  (  1,  9,  4)  (  1, 24, 11)  (  1, 32,  1)
  0 -0.1259E-03  0 -0.5229E-04  0 -0.2307E-04  0  0.1038E-04  0 -0.8508E-05
   (  1, 19,  3)  (  1, 37,  5)  (  1, 37,  5)  (  1,  8,  5)  (  1, 32,  1)
  1  0.6874E-03  0 -0.7552E-03  0 -0.2567E-03  0 -0.1451E-03  0 -0.4348E-04
   (  1,  9,  4)  (  1,  9,  4)  (  1, 24, 12)  (  1, 32,  1)  (  1, 18,  3)
  0 -0.1759E-04  0 -0.8109E-05  1  0.2223E-03  0 -0.2368E-03  0 -0.8422E-04
   (  1, 30,  6)  (  1, 37,  5)  (  1,  9,  4)  (  1,  9,  4)  (  1, 24, 12)
  0 -0.3642E-04  0 -0.1256E-04  0 -0.5963E-05  1  0.6926E-04  0 -0.7003E-04
   (  1, 25,  1)  (  1, 34,  3)  (  1, 37,  5)  (  1,  9,  4)  (  1,  9,  4)
  0 -0.2638E-04  0 -0.9753E-05  1 -0.1865E-04  0  0.2389E-04  0  0.1727E-04
   (  1,  8,  5)  (  1, 32,  1)  (  1,  8,  5)  (  1,  8,  5)  (  1,  9,  4)
  0 -0.7552E-05  1 -0.6091E-05
   (  1,  9,  4)  (  1, 28,  3)

 MAXIMUM RESIDUAL FOR EACH ITERATION (1 INDICATES THE FIRST INNER ITERATION):

    RESIDUAL       RESIDUAL       RESIDUAL       RESIDUAL       RESIDUAL    
   LAYER,ROW,COL  LAYER,ROW,COL  LAYER,ROW,COL  LAYER,ROW,COL  LAYER,ROW,COL
 ---------------------------------------------------------------------------
  1   7759.      0   3483.      0   1911.      0  -828.3      0  -635.1    
   (  1, 30, 15)  (  1, 30, 15)  (  1, 30, 15)  (  1, 39, 15)  (  1, 39, 15)
  0  -446.8      0  -317.9      0  -190.2      0  -93.51      0  -43.13    
   (  1, 39, 15)  (  1, 39, 15)  (  1, 39, 15)  (  1, 39, 15)  (  1, 39, 15)
  0  -18.37      0  -8.119      0  -3.117      0  -1.890      0 -0.8648    
   (  1, 39, 15)  (  1, 39, 15)  (  1, 39, 15)  (  1, 39, 15)  (  1, 39, 15)
  0 -0.3521      0 -0.1589      0 -0.6735E-01  0 -0.3481E-01  0 -0.1804E-01
   (  1, 36, 15)  (  1, 36, 15)  (  1, 36, 15)  (  1, 38, 15)  (  1, 38, 15)
  0 -0.9174E-02  0 -0.4422E-02  1   1629.      0   940.9      0   470.1    
   (  1, 38, 15)  (  1, 38, 15)  (  1, 30, 15)  (  1, 30, 15)  (  1, 30, 15)
  0  -187.4      0  -143.4      0  -101.3      0  -72.01      0  -43.96    
   (  1, 39, 15)  (  1, 39, 15)  (  1, 39, 15)  (  1, 39, 15)  (  1, 39, 15)
  0  -23.69      0  -12.45      0  -5.639      0  -2.666      0  -1.131    
   (  1, 39, 15)  (  1, 39, 15)  (  1, 39, 15)  (  1, 39, 15)  (  1, 39, 15)
  0 -0.7873      0 -0.3242      0 -0.1264      0 -0.3609E-01  0 -0.1547E-01
   (  1, 39, 15)  (  1, 39, 15)  (  1, 39, 15)  (  1, 39, 15)  (  1, 38, 15)
  0 -0.8421E-02  0 -0.4201E-02  0 -0.2054E-02  1   791.1      0   323.6    
   (  1, 38, 15)  (  1, 38, 15)  (  1, 38, 15)  (  1, 30, 15)  (  1, 30, 15)
  0   144.2      0   49.53      0  -32.84      0  -22.26      0  -16.45    
   (  1, 30, 15)  (  1, 30, 15)  (  1, 39, 15)  (  1, 39, 15)  (  1, 39, 15)
  0  -10.73      0  -6.329      0  -3.728      0  -1.961      0  -1.052    
   (  1, 39, 15)  (  1, 39, 15)  (  1, 39, 15)  (  1, 39, 15)  (  1, 39, 15)
  0 -0.7976      0 -0.3817      0 -0.1631      0 -0.6792E-01  0 -0.1787E-01
   (  1, 39, 15)  (  1, 39, 15)  (  1, 39, 15)  (  1, 39, 15)  (  1, 39, 15)
  0 -0.6188E-02  0 -0.2369E-02  0 -0.1120E-02  1   272.3      0   77.45    
   (  1, 39, 15)  (  1, 38, 15)  (  1, 38, 15)  (  1, 30, 15)  (  1, 30, 15)
  0   40.21      0   20.85      0   9.521      0  -6.751      0  -4.919    
   (  1, 30, 15)  (  1, 30, 15)  (  1, 30, 15)  (  1, 39, 15)  (  1, 39, 15)
  0  -3.125      0  -1.944      0  -1.169      0 -0.5700      0 -0.3020    
   (  1, 39, 15)  (  1, 39, 15)  (  1, 39, 15)  (  1, 39, 15)  (  1, 39, 15)
  0 -0.1682      0 -0.9161E-01  0 -0.5209E-01  0 -0.3538E-01  0 -0.1111E-01
   (  1, 39, 15)  (  1, 39, 15)  (  1, 39, 15)  (  1, 39, 15)  (  1, 39, 15)
  0 -0.4317E-02  1   148.3      0   66.64      0   25.64      0   8.790    
   (  1, 39, 15)  (  1, 30, 15)  (  1, 30, 15)  (  1, 30, 15)  (  1, 30, 15)
  0   3.802      0  -2.070      0  -1.478      0 -0.9309      0 -0.5926    
   (  1, 30, 15)  (  1, 39, 15)  (  1, 39, 15)  (  1, 39, 15)  (  1, 39, 15)
  0 -0.3868      0 -0.2326      0 -0.1286      0 -0.8463E-01  0 -0.5595E-01
   (  1, 39, 15)  (  1, 39, 15)  (  1, 39, 15)  (  1, 39, 15)  (  1, 39, 15)
  0 -0.2996E-01  0 -0.1409E-01  0 -0.4822E-02  1   66.31      0   29.35    
   (  1, 39, 15)  (  1, 39, 15)  (  1, 39, 15)  (  1, 30, 15)  (  1, 30, 15)
  0   10.66      0   3.274      0   1.322      0  0.6282      0 -0.4495    
   (  1, 30, 15)  (  1, 30, 15)  (  1, 30, 15)  (  1, 30, 15)  (  1, 39, 15)
  0 -0.2841      0 -0.1782      0 -0.1199      0 -0.7470E-01  0 -0.4194E-01
   (  1, 39, 15)  (  1, 39, 15)  (  1, 39, 15)  (  1, 39, 15)  (  1, 39, 15)
  0 -0.2113E-01  0 -0.1509E-01  0 -0.9643E-02  0 -0.4693E-02  1   21.61    
   (  1, 39, 15)  (  1, 39, 15)  (  1, 39, 15)  (  1, 39, 15)  (  1, 30, 15)
  0   10.92      0   3.996      0   1.108      0  0.4189      0  0.1957    
   (  1, 30, 15)  (  1, 30, 15)  (  1, 30, 15)  (  1, 30, 15)  (  1, 30, 15)
  0 -0.1372      0 -0.8806E-01  0 -0.5322E-01  0 -0.3557E-01  0 -0.2233E-01
   (  1, 39, 15)  (  1, 39, 15)  (  1, 39, 15)  (  1, 39, 15)  (  1, 39, 15)
  0 -0.1332E-01  0 -0.7074E-02  0 -0.5582E-02  0 -0.2988E-02  1   6.517    
   (  1, 39, 15)  (  1, 39, 15)  (  1, 39, 15)  (  1, 39, 15)  (  1, 30, 15)
  0   2.642      0   1.321      0  0.3393      0  0.1222      0  0.5604E-01
   (  1, 30, 15)  (  1, 30, 15)  (  1, 30, 15)  (  1, 30, 15)  (  1, 30, 15)
  0 -0.4160E-01  0 -0.2739E-01  0 -0.1612E-01  0 -0.1066E-01  0 -0.6510E-02
   (  1, 39, 15)  (  1, 39, 15)  (  1, 39, 15)  (  1, 39, 15)  (  1, 39, 15)
  0 -0.4121E-02  1   2.273      0   1.152      0  0.4479      0  0.9261E-01
   (  1, 39, 15)  (  1, 30, 15)  (  1, 30, 15)  (  1, 30, 15)  (  1, 30, 15)
  0  0.3303E-01  0 -0.1580E-01  0 -0.1209E-01  0 -0.8406E-02  0 -0.4917E-02
   (  1, 30, 15)  (  1, 39, 15)  (  1, 39, 15)  (  1, 39, 15)  (  1, 39, 15)
  0 -0.3265E-02  1  0.8793      0  0.5046      0  0.1526      0  0.2584E-01
   (  1, 39, 15)  (  1, 30, 15)  (  1, 30, 15)  (  1, 30, 15)  (  1, 30, 15)
  0  0.9449E-02  0 -0.4684E-02  0 -0.3498E-02  0 -0.2524E-02  0 -0.1499E-02
   (  1, 30, 15)  (  1, 39, 15)  (  1, 39, 15)  (  1, 39, 15)  (  1, 39, 15)
  1  0.3219      0  0.1761      0  0.5217E-01  0  0.8424E-02  0  0.3224E-02
   (  1, 30, 15)  (  1, 30, 15)  (  1, 30, 15)  (  1, 30, 15)  (  1, 30, 15)
  0 -0.1455E-02  0 -0.1101E-02  1  0.1073      0  0.5901E-01  0  0.1806E-01
   (  1, 39, 15)  (  1, 39, 15)  (  1, 30, 15)  (  1, 30, 15)  (  1, 30, 15)
  0  0.3089E-02  0  0.1072E-02  0 -0.4416E-03  1  0.3272E-01  0  0.1920E-01
   (  1, 30, 15)  (  1, 30, 15)  (  1, 39, 15)  (  1, 30, 15)  (  1, 30, 15)
  0  0.5954E-02  0  0.6791E-03  1  0.1506E-01  0  0.6199E-02  0  0.2816E-02
   (  1, 30, 15)  (  1, 30, 15)  (  1, 30, 15)  (  1, 30, 15)  (  1, 30, 15)
  0  0.6135E-03  1  0.9422E-02
   (  1, 30, 15)  (  1, 30, 15)



 OUTPUT CONTROL FOR STRESS PERIOD    1   TIME STEP    1
    SAVE HEAD FOR ALL LAYERS
    SAVE BUDGET
 UBDSV2 SAVING "   CONSTANT HEAD" ON UNIT  53 AT TIME STEP     1, STRESS PERIOD   1
 UBDSV1 SAVING "FLOW RIGHT FACE " ON UNIT  53 AT TIME STEP     1, STRESS PERIOD   1
 UBDSV1 SAVING "FLOW FRONT FACE " ON UNIT  53 AT TIME STEP     1, STRESS PERIOD   1

 HEAD WILL BE SAVED ON UNIT   51 AT END OF TIME STEP    1, STRESS PERIOD    1
1
  VOLUMETRIC BUDGET FOR ENTIRE MODEL AT END OF TIME STEP    1, STRESS PERIOD   1
  ------------------------------------------------------------------------------

     CUMULATIVE VOLUMES      L**3       RATES FOR THIS TIME STEP      L**3/T
     ------------------                 ------------------------

           IN:                                      IN:
           ---                                      ---
             STORAGE =           0.0000               STORAGE =           0.0000
       CONSTANT HEAD =           0.0000         CONSTANT HEAD =           0.0000
               WELLS =         591.2422                 WELLS =         591.2422
       RIVER LEAKAGE =          19.7346         RIVER LEAKAGE =          19.7346
            RECHARGE =        5619.7686              RECHARGE =        5619.7686

            TOTAL IN =        6230.7451              TOTAL IN =        6230.7451

          OUT:                                     OUT:
          ----                                     ----
             STORAGE =           0.0000               STORAGE =           0.0000
       CONSTANT HEAD =         350.5571         CONSTANT HEAD =         350.5571
               WELLS =           0.0000                 WELLS =           0.0000
       RIVER LEAKAGE =        5880.3633         RIVER LEAKAGE =        5880.3633
            RECHARGE =           0.0000              RECHARGE =           0.0000

           TOTAL OUT =        6230.9204             TOTAL OUT =        6230.9204

            IN - OUT =          -0.1753              IN - OUT =          -0.1753

 PERCENT DISCREPANCY =          -0.00     PERCENT DISCREPANCY =          -0.00






         TIME SUMMARY AT END OF TIME STEP    1 IN STRESS PERIOD    1
                    SECONDS     MINUTES      HOURS       DAYS        YEARS
                    -----------------------------------------------------------
   TIME STEP LENGTH  86400.      1440.0      24.000      1.0000     2.73785E-03
 STRESS PERIOD TIME  86400.      1440.0      24.000      1.0000     2.73785E-03
         TOTAL TIME  86400.      1440.0      24.000      1.0000     2.73785E-03
1
1
                            STRESS PERIOD NO.    2, LENGTH =   1825.000    
                            -----------------------------------------------

                              NUMBER OF TIME STEPS =     1

                               MULTIPLIER FOR DELT =     1.000

                            INITIAL TIME STEP SIZE =   1825.000    

 WELL NO.  LAYER   ROW   COL   STRESS RATE         
 --------------------------------------------------
      1      1      9     16       115.0    
      2      1     11     13       81.20    
      3      1     20     14       120.4    
      4      1     26     10       80.62    
      5      1     29      6       76.51    
      6      1     34     12       97.89    

      6 WELLS

 REUSING NON-PARAMETER RIVER REACHES FROM LAST STRESS PERIOD

     40 RIVER REACHES

 OPENING FILE ON UNIT   99:
 rech_1.ref                                                                                                                                                                                              



                           RECHARGE
 READING ON UNIT   99 WITH FORMAT: (20G15.6)           
 
 SOLVING FOR HEAD 


    10 CALLS TO PCG ROUTINE FOR TIME STEP     1 IN STRESS PERIOD    2
    54 TOTAL ITERATIONS

 MAXIMUM HEAD CHANGE FOR EACH ITERATION (1 INDICATES THE FIRST INNER ITERATION):

    HEAD CHANGE    HEAD CHANGE    HEAD CHANGE    HEAD CHANGE    HEAD CHANGE 
   LAYER,ROW,COL  LAYER,ROW,COL  LAYER,ROW,COL  LAYER,ROW,COL  LAYER,ROW,COL
 ---------------------------------------------------------------------------
  1 -0.3584      0  0.3970E-01  0 -0.1355E-01  0  0.5565E-02  0  0.1751E-02
   (  1, 29,  6)  (  1, 11, 13)  (  1, 25,  2)  (  1, 12,  9)  (  1, 14,  9)
  0 -0.5165E-03  0 -0.1278E-03  0  0.6135E-04  0  0.1691E-04  0  0.5054E-05
   (  1, 19,  2)  (  1,  5,  1)  (  1, 33,  2)  (  1, 25, 12)  (  1, 39, 14)
  1 -0.9217E-01  0 -0.1060E-01  0  0.3530E-02  0  0.1693E-02  0  0.5391E-03
   (  1, 29,  6)  (  1, 31,  1)  (  1, 30, 11)  (  1, 12,  9)  (  1, 14,  9)
  0 -0.1571E-03  0 -0.3869E-04  0  0.1790E-04  0  0.4694E-05  1 -0.2289E-01
   (  1, 19,  2)  (  1, 39, 11)  (  1, 33,  2)  (  1, 31,  3)  (  1, 29,  6)
  0 -0.3117E-02  0  0.1073E-02  0  0.5127E-03  0  0.1647E-03  0 -0.4791E-04
   (  1, 33,  2)  (  1, 27,  9)  (  1, 11,  9)  (  1, 14,  9)  (  1, 20,  3)
  0 -0.1231E-04  0  0.5107E-05  1 -0.5841E-02  0 -0.9263E-03  0  0.3150E-03
   (  1, 39, 11)  (  1, 33,  2)  (  1, 23, 10)  (  1, 27,  8)  (  1, 27,  9)
  0  0.1493E-03  0  0.4942E-04  0 -0.1435E-04  0 -0.3956E-05  1 -0.1695E-02
   (  1, 12, 10)  (  1, 14,  9)  (  1, 20,  3)  (  1, 39, 12)  (  1, 23, 10)
  0 -0.3077E-03  0 -0.9701E-04  0  0.4340E-04  0  0.1485E-04  0 -0.4224E-05
   (  1, 27,  8)  (  1, 30,  5)  (  1, 11, 10)  (  1, 13,  9)  (  1, 20,  3)
  1 -0.4916E-03  0 -0.1004E-03  0 -0.2936E-04  0  0.1236E-04  0  0.4367E-05
   (  1, 23, 11)  (  1, 27,  9)  (  1, 30,  6)  (  1, 11, 10)  (  1, 13,  9)
  1 -0.1415E-03  0 -0.3186E-04  0 -0.9231E-05  1 -0.4029E-04  0 -0.1030E-04
   (  1, 23, 11)  (  1, 27,  9)  (  1, 20,  9)  (  1, 24, 13)  (  1, 10,  9)
  0 -0.3164E-05  1 -0.1198E-04  0 -0.3472E-05  1 -0.3774E-05
   (  1, 20,  9)  (  1, 23, 13)  (  1, 10, 10)  (  1, 23, 12)

 MAXIMUM RESIDUAL FOR EACH ITERATION (1 INDICATES THE FIRST INNER ITERATION):

    RESIDUAL       RESIDUAL       RESIDUAL       RESIDUAL       RESIDUAL    
   LAYER,ROW,COL  LAYER,ROW,COL  LAYER,ROW,COL  LAYER,ROW,COL  LAYER,ROW,COL
 ---------------------------------------------------------------------------
  1  -6.096      0   2.515      0  0.9811      0  0.3441      0  0.1003    
   (  1, 29,  6)  (  1, 22, 15)  (  1,  1, 15)  (  1,  1, 15)  (  1,  1, 15)
  0  0.3219E-01  0  0.1426E-01  0  0.4642E-02  0  0.1272E-02  0  0.3723E-03
   (  1,  1, 15)  (  1, 22, 15)  (  1, 22, 15)  (  1, 19, 15)  (  1, 19, 15)
  1   1.772      0  0.8113      0  0.3016      0  0.1003      0  0.2846E-01
   (  1, 23, 15)  (  1, 22, 15)  (  1,  1, 15)  (  1,  1, 15)  (  1,  1, 15)
  0  0.1015E-01  0  0.4433E-02  0  0.1375E-02  0  0.3979E-03  1  0.6315    
   (  1,  1, 15)  (  1, 22, 15)  (  1, 22, 15)  (  1, 22, 15)  (  1, 23, 15)
  0  0.2664      0  0.9502E-01  0  0.3078E-01  0  0.8846E-02  0  0.3318E-02
   (  1, 22, 15)  (  1,  1, 15)  (  1,  1, 15)  (  1,  1, 15)  (  1,  1, 15)
  0  0.1376E-02  0  0.4171E-03  1  0.2189      0  0.8932E-01  0  0.3007E-01
   (  1, 22, 15)  (  1, 22, 15)  (  1, 23, 15)  (  1, 22, 15)  (  1,  1, 15)
  0  0.9712E-02  0  0.2900E-02  0  0.1092E-02  0  0.4264E-03  1  0.7427E-01
   (  1,  1, 15)  (  1,  1, 15)  (  1,  1, 15)  (  1, 22, 15)  (  1, 23, 15)
  0  0.3123E-01  0  0.9481E-02  0  0.3070E-02  0  0.9545E-03  0  0.3523E-03
   (  1, 32, 15)  (  1,  1, 15)  (  1,  1, 15)  (  1,  1, 15)  (  1,  1, 15)
  1  0.2484E-01  0  0.1085E-01  0  0.2971E-02  0  0.9631E-03  0  0.3113E-03
   (  1, 23, 15)  (  1, 32, 15)  (  1,  1, 15)  (  1,  1, 15)  (  1,  1, 15)
  1  0.8246E-02  0  0.3727E-02  0  0.9457E-03  1  0.2906E-02  0  0.1194E-02
   (  1, 23, 15)  (  1, 32, 15)  (  1, 32, 15)  (  1, 23, 15)  (  1, 32, 15)
  0  0.3196E-03  1  0.1002E-02  0  0.3741E-03  1  0.3928E-03
   (  1, 32, 15)  (  1, 23, 15)  (  1, 32, 15)  (  1, 23, 15)



 OUTPUT CONTROL FOR STRESS PERIOD    2   TIME STEP    1
    SAVE HEAD FOR ALL LAYERS
    SAVE BUDGET
 UBDSV1 SAVING "         STORAGE" ON UNIT  53 AT TIME STEP     1, STRESS PERIOD   2
 UBDSV2 SAVING "   CONSTANT HEAD" ON UNIT  53 AT TIME STEP     1, STRESS PERIOD   2
 UBDSV1 SAVING "FLOW RIGHT FACE " ON UNIT  53 AT TIME STEP     1, STRESS PERIOD   2
 UBDSV1 SAVING "FLOW FRONT FACE " ON UNIT  53 AT TIME STEP     1, STRESS PERIOD   2

 HEAD WILL BE SAVED ON UNIT   51 AT END OF TIME STEP    1, STRESS PERIOD    2
1
  VOLUMETRIC BUDGET FOR ENTIRE MODEL AT END OF TIME STEP    1, STRESS PERIOD   2
  ------------------------------------------------------------------------------

     CUMULATIVE VOLUMES      L**3       RATES FOR THIS TIME STEP      L**3/T
     ------------------                 ------------------------

           IN:                                      IN:
           ---                                      ---
             STORAGE =     1824355.0000               STORAGE =         999.6466
       CONSTANT HEAD =           0.0000         CONSTANT HEAD =           0.0000
               WELLS =     1043702.8125                 WELLS =         571.5680
       RIVER LEAKAGE =       63198.9844         RIVER LEAKAGE =          34.6188
            RECHARGE =     7163521.5000              RECHARGE =        3922.1377

            TOTAL IN =    10094778.0000              TOTAL IN =        5527.9707

          OUT:                                     OUT:
          ----                                     ----
             STORAGE =           8.2289               STORAGE =       4.5090E-03
       CONSTANT HEAD =      532641.6875         CONSTANT HEAD =         291.6664
               WELLS =           0.0000                 WELLS =           0.0000
       RIVER LEAKAGE =     9562180.0000         RIVER LEAKAGE =        5236.3286
            RECHARGE =           0.0000              RECHARGE =           0.0000

           TOTAL OUT =    10094830.0000             TOTAL OUT =        5527.9995

            IN - OUT =         -52.0000              IN - OUT =      -2.8809E-02

 PERCENT DISCREPANCY =          -0.00     PERCENT DISCREPANCY =          -0.00






         TIME SUMMARY AT END OF TIME STEP    1 IN STRESS PERIOD    2
                    SECONDS     MINUTES      HOURS       DAYS        YEARS
                    -----------------------------------------------------------
   TIME STEP LENGTH 1.57680E+08 2.62800E+06  43800.      1825.0      4.9966    
 STRESS PERIOD TIME 1.57680E+08 2.62800E+06  43800.      1825.0      4.9966    
         TOTAL TIME 1.57766E+08 2.62944E+06  43824.      1826.0      4.9993    
1
1
                            STRESS PERIOD NO.    3, LENGTH =   1.000000    
                            -----------------------------------------------

                              NUMBER OF TIME STEPS =     1

                               MULTIPLIER FOR DELT =     1.000

                            INITIAL TIME STEP SIZE =   1.000000    

 WELL NO.  LAYER   ROW   COL   STRESS RATE         
 --------------------------------------------------
      1      1      9     16       115.0    
      2      1     11     13       81.20    
      3      1     20     14       120.4    
      4      1     26     10       80.62    
      5      1     29      6       76.51    
      6      1     34     12       97.89    

      6 WELLS

 REUSING NON-PARAMETER RIVER REACHES FROM LAST STRESS PERIOD

     40 RIVER REACHES

 OPENING FILE ON UNIT   99:
 rech_2.ref                                                                                                                                                                                              



                           RECHARGE
 READING ON UNIT   99 WITH FORMAT: (20G15.6)           
 
 SOLVING FOR HEAD 


    10 CALLS TO PCG ROUTINE FOR TIME STEP     1 IN STRESS PERIOD    3
    99 TOTAL ITERATIONS

 MAXIMUM HEAD CHANGE FOR EACH ITERATION (1 INDICATES THE FIRST INNER ITERATION):

    HEAD CHANGE    HEAD CHANGE    HEAD CHANGE    HEAD CHANGE    HEAD CHANGE 
   LAYER,ROW,COL  LAYER,ROW,COL  LAYER,ROW,COL  LAYER,ROW,COL  LAYER,ROW,COL
 ---------------------------------------------------------------------------
  1  -1.763      0  -1.027      0 -0.5107      0 -0.2076      0 -0.1478    
   (  1,  9,  4)  (  1,  8,  5)  (  1, 21,  1)  (  1, 14,  3)  (  1,  1,  5)
  0 -0.6084E-01  0 -0.1812E-01  0 -0.1701E-01  0 -0.5259E-02  0 -0.3948E-02
   (  1,  2,  1)  (  1, 25,  1)  (  1,  3,  5)  (  1,  2,  7)  (  1,  4,  1)
  0 -0.1860E-02  0 -0.8519E-03  0  0.7135E-03  0 -0.2939E-03  0  0.1952E-03
   (  1,  3,  3)  (  1,  7,  1)  (  1,  9,  4)  (  1,  7,  1)  (  1, 32,  1)
  0 -0.5141E-04  0 -0.1561E-04  0 -0.9709E-05  1 -0.1447      0 -0.1860    
   (  1, 34,  3)  (  1, 11, 11)  (  1, 14, 10)  (  1,  4,  7)  (  1,  9,  4)
  0 -0.7764E-01  0  0.2358E-01  0 -0.1036E-01  0 -0.6780E-02  0 -0.3653E-02
   (  1,  8,  5)  (  1,  8,  5)  (  1,  3,  6)  (  1,  8,  4)  (  1, 33,  2)
  0 -0.2591E-02  0  0.1014E-02  0 -0.3156E-03  0  0.1969E-03  0  0.8969E-04
   (  1,  4,  5)  (  1, 32,  1)  (  1,  4,  5)  (  1, 34,  3)  (  1, 14,  3)
  0 -0.1336E-03  0 -0.6578E-04  0  0.2136E-04  0 -0.1169E-04  0  0.3068E-05
   (  1,  9,  3)  (  1,  8,  5)  (  1,  8,  5)  (  1,  7,  2)  (  1, 31,  3)
  1  0.6922E-01  0  0.3231E-01  0 -0.3133E-01  0  0.9519E-02  0  0.5838E-02
   (  1,  9,  4)  (  1,  8,  5)  (  1,  8,  5)  (  1, 13,  1)  (  1, 25,  1)
  0  0.3350E-02  0 -0.1893E-02  0  0.7389E-03  0  0.3026E-03  0  0.1434E-03
   (  1,  1,  2)  (  1, 33,  2)  (  1, 32,  1)  (  1,  2,  1)  (  1,  2,  1)
  0  0.8667E-04  0  0.4656E-04  0 -0.4908E-04  0 -0.1307E-04  0  0.1009E-04
   (  1,  3,  1)  (  1,  8,  1)  (  1,  9,  4)  (  1,  6,  8)  (  1,  1,  2)
  0 -0.2352E-05  1  0.2211E-01  0 -0.8821E-02  0 -0.7806E-02  0  0.3377E-02
   (  1,  9, 12)  (  1,  9,  4)  (  1,  9,  4)  (  1,  8,  5)  (  1, 14,  2)
  0  0.2234E-02  0  0.8865E-03  0  0.4753E-03  0  0.1740E-03  0 -0.7046E-04
   (  1, 25,  1)  (  1, 19,  3)  (  1, 20,  3)  (  1, 28,  1)  (  1, 10,  1)
  0  0.4684E-04  0 -0.3031E-04  0 -0.7825E-05  1  0.4393E-02  0  0.2574E-02
   (  1,  3,  1)  (  1, 32,  1)  (  1,  8,  4)  (  1,  8,  5)  (  1,  9,  4)
  0 -0.2133E-02  0  0.1106E-02  0  0.5755E-03  0  0.2425E-03  0  0.8705E-04
   (  1,  9,  4)  (  1, 15,  4)  (  1, 25,  1)  (  1, 20,  3)  (  1, 26,  1)
  0 -0.2831E-04  0 -0.2859E-04  0  0.1532E-04  0 -0.9796E-05  1  0.7417E-03
   (  1, 29,  6)  (  1,  8,  5)  (  1,  3,  1)  (  1, 32,  1)  (  1,  8,  5)
  0  0.1229E-02  0 -0.2373E-03  0  0.2124E-03  0  0.1117E-03  0  0.6552E-04
   (  1,  9,  4)  (  1,  9,  4)  (  1, 25,  3)  (  1, 32,  1)  (  1, 26,  1)
  0  0.3589E-04  0 -0.1318E-04  0 -0.6369E-05  1 -0.2976E-03  0  0.2676E-03
   (  1, 20,  4)  (  1, 33,  2)  (  1, 12,  2)  (  1,  9,  4)  (  1,  9,  4)
  0  0.9416E-04  0  0.4931E-04  0  0.3412E-04  0  0.1918E-04  0  0.6639E-05
   (  1,  8,  5)  (  1, 25,  3)  (  1, 24,  6)  (  1, 28,  2)  (  1, 22,  4)
  1 -0.9916E-04  0  0.5856E-04  0  0.3658E-04  0 -0.1428E-04  0  0.8678E-05
   (  1,  9,  4)  (  1,  9,  4)  (  1,  8,  5)  (  1,  5,  2)  (  1, 24,  6)
  1 -0.2907E-04  0  0.1819E-04  0  0.8931E-05  1 -0.7975E-05
   (  1,  9,  4)  (  1,  9,  4)  (  1,  8,  6)  (  1, 11,  4)

 MAXIMUM RESIDUAL FOR EACH ITERATION (1 INDICATES THE FIRST INNER ITERATION):

    RESIDUAL       RESIDUAL       RESIDUAL       RESIDUAL       RESIDUAL    
   LAYER,ROW,COL  LAYER,ROW,COL  LAYER,ROW,COL  LAYER,ROW,COL  LAYER,ROW,COL
 ---------------------------------------------------------------------------
  1  -23.62      0   11.63      0   13.20      0   9.408      0   5.934    
   (  1,  9,  4)  (  1,  1, 10)  (  1,  1, 10)  (  1,  3, 15)  (  1,  2, 15)
  0   3.825      0   2.607      0   1.254      0  0.6489      0  0.3627    
   (  1,  1, 15)  (  1,  1, 15)  (  1,  1, 15)  (  1,  1, 15)  (  1,  1, 15)
  0  0.1864      0  0.1024      0  0.8157E-01  0  0.3896E-01  0  0.1778E-01
   (  1,  1, 15)  (  1,  1, 15)  (  1,  1, 15)  (  1,  1, 15)  (  1,  1, 15)
  0  0.9208E-02  0  0.3942E-02  0  0.1788E-02  1   3.660      0   3.161    
   (  1,  1, 15)  (  1,  1, 15)  (  1,  1, 15)  (  1,  9,  4)  (  1, 32, 15)
  0   3.061      0   2.397      0   1.484      0  0.7856      0  0.4824    
   (  1, 23, 15)  (  1, 23, 15)  (  1, 22, 15)  (  1,  1, 15)  (  1,  1, 15)
  0  0.2159      0  0.9083E-01  0  0.4546E-01  0  0.2264E-01  0  0.1339E-01
   (  1,  1, 15)  (  1,  1, 15)  (  1,  1, 15)  (  1,  1, 15)  (  1,  1, 15)
  0  0.8580E-02  0  0.5500E-02  0  0.2443E-02  0  0.1286E-02  0  0.5840E-03
   (  1,  1, 15)  (  1,  1, 15)  (  1,  1, 15)  (  1,  1, 15)  (  1,  1, 15)
  1   1.190      0  0.9144      0  0.9782      0  0.6560      0  0.3872    
   (  1,  9,  4)  (  1, 23, 15)  (  1, 23, 15)  (  1, 22, 15)  (  1, 22, 15)
  0  0.1547      0  0.7196E-01  0  0.3359E-01  0  0.1856E-01  0  0.1015E-01
   (  1,  1, 15)  (  1,  1, 15)  (  1, 22, 15)  (  1, 24, 15)  (  1, 22, 15)
  0 -0.4525E-02  0 -0.3256E-02  0 -0.1968E-02  0  0.9307E-03  0  0.3529E-03
   (  1, 39, 14)  (  1, 39, 14)  (  1, 39, 14)  (  1, 24, 15)  (  1, 24, 15)
  0  0.1810E-03  1 -0.3345      0  0.3241      0  0.3030      0  0.1699    
   (  1,  3, 15)  (  1, 29,  6)  (  1, 23, 15)  (  1, 23, 15)  (  1, 22, 15)
  0  0.8841E-01  0  0.4075E-01  0  0.1947E-01  0  0.9582E-02  0  0.5287E-02
   (  1, 32, 15)  (  1, 31, 15)  (  1, 30, 15)  (  1, 30, 15)  (  1, 25, 15)
  0  0.2831E-02  0 -0.1255E-02  0 -0.6729E-03  1 -0.1153      0  0.1081    
   (  1, 24, 15)  (  1,  2, 11)  (  1, 39, 14)  (  1, 24,  5)  (  1, 23, 15)
  0  0.8780E-01  0  0.5215E-01  0  0.2174E-01  0  0.9891E-02  0  0.5519E-02
   (  1, 23, 15)  (  1, 32, 15)  (  1, 32, 15)  (  1, 32, 15)  (  1, 30, 15)
  0  0.3001E-02  0  0.1572E-02  0  0.8840E-03  0  0.4218E-03  1 -0.4408E-01
   (  1, 30, 15)  (  1, 30, 15)  (  1, 30, 15)  (  1, 30, 15)  (  1, 24,  5)
  0  0.3628E-01  0  0.2647E-01  0  0.1687E-01  0  0.7491E-02  0  0.4575E-02
   (  1, 23, 15)  (  1, 32, 15)  (  1, 32, 15)  (  1, 32, 15)  (  1, 32, 15)
  0  0.2203E-02  0  0.1019E-02  0  0.4581E-03  1 -0.1364E-01  0  0.1121E-01
   (  1, 32, 15)  (  1, 32, 15)  (  1, 32, 15)  (  1, 24,  5)  (  1, 23, 15)
  0  0.8215E-02  0  0.5652E-02  0  0.2454E-02  0  0.1470E-02  0  0.7293E-03
   (  1, 32, 15)  (  1, 32, 15)  (  1, 32, 15)  (  1, 32, 15)  (  1, 32, 15)
  1 -0.3742E-02  0  0.3437E-02  0  0.2669E-02  0  0.1852E-02  0  0.7776E-03
   (  1, 24,  5)  (  1, 23, 15)  (  1, 32, 15)  (  1, 32, 15)  (  1, 32, 15)
  1  0.1577E-02  0  0.1310E-02  0  0.9444E-03  1  0.1023E-02
   (  1, 32, 15)  (  1, 32, 15)  (  1, 32, 15)  (  1, 32, 15)



 OUTPUT CONTROL FOR STRESS PERIOD    3   TIME STEP    1
    SAVE HEAD FOR ALL LAYERS
    SAVE BUDGET
 UBDSV2 SAVING "   CONSTANT HEAD" ON UNIT  53 AT TIME STEP     1, STRESS PERIOD   3
 UBDSV1 SAVING "FLOW RIGHT FACE " ON UNIT  53 AT TIME STEP     1, STRESS PERIOD   3
 UBDSV1 SAVING "FLOW FRONT FACE " ON UNIT  53 AT TIME STEP     1, STRESS PERIOD   3

 HEAD WILL BE SAVED ON UNIT   51 AT END OF TIME STEP    1, STRESS PERIOD    3
1
  VOLUMETRIC BUDGET FOR ENTIRE MODEL AT END OF TIME STEP    1, STRESS PERIOD   3
  ------------------------------------------------------------------------------

     CUMULATIVE VOLUMES      L**3       RATES FOR THIS TIME STEP      L**3/T
     ------------------                 ------------------------

           IN:                                      IN:
           ---                                      ---
             STORAGE =     1824355.0000               STORAGE =           0.0000
       CONSTANT HEAD =           6.0263         CONSTANT HEAD =           6.0263
               WELLS =     1044274.3750                 WELLS =         571.5680
       RIVER LEAKAGE =       63253.8086         RIVER LEAKAGE =          54.8236
            RECHARGE =     7167443.5000              RECHARGE =        3922.1377

            TOTAL IN =    10099333.0000              TOTAL IN =        4554.5557

          OUT:                                     OUT:
          ----                                     ----
             STORAGE =           8.2289               STORAGE =           0.0000
       CONSTANT HEAD =      532844.2500         CONSTANT HEAD =         202.5506
               WELLS =           0.0000                 WELLS =           0.0000
       RIVER LEAKAGE =     9566532.0000         RIVER LEAKAGE =        4352.0420
            RECHARGE =           0.0000              RECHARGE =           0.0000

           TOTAL OUT =    10099384.0000             TOTAL OUT =        4554.5928

            IN - OUT =         -51.0000              IN - OUT =      -3.7109E-02

 PERCENT DISCREPANCY =          -0.00     PERCENT DISCREPANCY =          -0.00






         TIME SUMMARY AT END OF TIME STEP    1 IN STRESS PERIOD    3
                    SECONDS     MINUTES      HOURS       DAYS        YEARS
                    -----------------------------------------------------------
   TIME STEP LENGTH  86400.      1440.0      24.000      1.0000     2.73785E-03
 STRESS PERIOD TIME  86400.      1440.0      24.000      1.0000     2.73785E-03
         TOTAL TIME 1.57853E+08 2.63088E+06  43848.      1827.0      5.0021    
1

 Run end date and time (yyyy/mm/dd hh:mm:ss): 2018/01/15 11:57:37
 Elapsed run time:  0.038 Seconds

